Mass spectrum: Phenazine; ESI-ITFT; direct injection; MS2; CE: 75; HCD; R=60000; [M+H]+
Name: Phenazine
Name: 9,10-Diazaanthracene
Formula: C12H8N2
Exact mass: 180.06875
SMILES: C1=CC2=NC3=CC=CC=C3N=C2C=C1
InChI: InChI=1S/C12H8N2/c1-2-6-10-9(5-1)13-11-7-3-4-8-12(11)14-10/h1-8H
Instrument: LTQ Orbitrap XL Thermo Scientific
Instrument type: ESI-ITFT
Ms type: MS2
Ionization: ESI
Ion mode: POSITIVE
Fragmentation mode: HCD
Collision energy: 75
Resolution: 60000
Retention time: 2.0 min
Base peak: 181.0768
Precursor m/z: 181.076
Precursor type: [M+H]+
m/z	relative intensity	assigned
181.0759	999	C12H9N2+
